
  -OEChem-06092017133D

 40 44  0     1  0  0  0  0  0999 V2000
   -0.4937   -0.6652   -0.7033 C   0  0  0  0  0  0  0  0  0  0  0  0
   -0.7967   -0.1996   -1.9988 C   0  0  0  0  0  0  0  0  0  0  0  0
   -0.7946   -1.9790   -0.3401 C   0  0  0  0  0  0  0  0  0  0  0  0
   -1.4233   -2.7664   -1.2875 C   0  0  0  0  0  0  0  0  0  0  0  0
   -1.6446   -2.3426   -2.5788 C   0  0  0  0  0  0  0  0  0  0  0  0
   -1.3646   -1.0483   -2.9577 C   0  0  0  0  0  0  0  0  0  0  0  0
    0.5075   -5.0406   -0.8643 C   0  0  0  0  0  0  0  0  0  0  0  0
    0.6163   -5.2127   -2.1898 C   0  0  0  0  0  0  0  0  0  0  0  0
   -0.3666   -2.6058    0.9595 C   0  0  0  0  0  0  0  0  0  0  0  0
   -3.2477   -4.2463   -0.4718 C   0  0  0  0  0  0  0  0  0  0  0  0
   -3.2556   -3.7298    0.9766 C   0  0  0  0  0  0  0  0  0  0  0  0
   -0.8372   -4.8920   -0.2004 C   0  0  1  0  0  0  0  0  0  0  0  0
   -0.5786   -5.3058   -3.0978 C   0  0  1  0  0  0  0  0  0  0  0  0
   -0.8153   -4.0962    1.1450 C   0  0  2  0  0  0  0  0  0  0  0  0
   -1.8604   -4.5782   -2.6123 C   0  0  1  0  0  0  0  0  0  0  0  0
   -1.8486   -4.1872   -1.1165 C   0  0  2  0  0  0  0  0  0  0  0  0
   -2.2081   -3.8150    3.1532 C   0  0  0  0  0  0  0  0  0  0  0  0
   -2.1487   -4.2742    1.7694 N   0  0  1  0  0  0  0  0  0  0  0  0
   -2.0905   -3.3515   -3.3899 O   0  0  0  0  0  0  0  0  0  0  0  0
   -1.5947   -0.6121   -4.2206 O   0  0  0  0  0  0  0  0  0  0  0  0
   -0.2068   -4.8636   -4.4003 O   0  0  0  0  0  0  0  0  0  0  0  0
   -0.0002   -0.0001    0.0002 H   0  0  0  0  0  0  0  0  0  0  0  0
   -0.5479    0.8259   -2.2621 H   0  0  0  0  0  0  0  0  0  0  0  0
    1.4007   -5.0529   -0.2475 H   0  0  0  0  0  0  0  0  0  0  0  0
    1.6025   -5.3643   -2.6195 H   0  0  0  0  0  0  0  0  0  0  0  0
    0.7317   -2.5912    0.9762 H   0  0  0  0  0  0  0  0  0  0  0  0
   -0.6942   -1.9797    1.7952 H   0  0  0  0  0  0  0  0  0  0  0  0
   -3.5923   -5.2893   -0.4742 H   0  0  0  0  0  0  0  0  0  0  0  0
   -3.9810   -3.6745   -1.0551 H   0  0  0  0  0  0  0  0  0  0  0  0
   -3.2387   -2.6329    0.9805 H   0  0  0  0  0  0  0  0  0  0  0  0
   -4.2110   -4.0229    1.4297 H   0  0  0  0  0  0  0  0  0  0  0  0
   -1.1798   -5.9160    0.0123 H   0  0  0  0  0  0  0  0  0  0  0  0
   -0.8056   -6.3762   -3.1858 H   0  0  0  0  0  0  0  0  0  0  0  0
   -0.0839   -4.5795    1.8076 H   0  0  0  0  0  0  0  0  0  0  0  0
   -2.7143   -5.2318   -2.8324 H   0  0  0  0  0  0  0  0  0  0  0  0
   -1.3657   -4.2410    3.7179 H   0  0  0  0  0  0  0  0  0  0  0  0
   -2.1480   -2.7170    3.1779 H   0  0  0  0  0  0  0  0  0  0  0  0
   -3.1557   -4.1407    3.6071 H   0  0  0  0  0  0  0  0  0  0  0  0
   -1.3151    0.3140   -4.3184 H   0  0  0  0  0  0  0  0  0  0  0  0
    0.5055   -5.4503   -4.6987 H   0  0  0  0  0  0  0  0  0  0  0  0
  1  2  1  0  0  0  0
  1  3  2  0  0  0  0
  2  6  2  0  0  0  0
  3  4  1  0  0  0  0
  3  9  1  0  0  0  0
  4  5  2  0  0  0  0
  4 16  1  0  0  0  0
  5  6  1  0  0  0  0
  5 19  1  0  0  0  0
  6 20  1  0  0  0  0
  7  8  2  0  0  0  0
  7 12  1  0  0  0  0
  8 13  1  0  0  0  0
  9 14  1  0  0  0  0
 10 11  1  0  0  0  0
 10 16  1  0  0  0  0
 11 18  1  0  0  0  0
 12 14  1  0  0  0  0
 12 16  1  0  0  0  0
 13 15  1  0  0  0  0
 13 21  1  0  0  0  0
 14 18  1  0  0  0  0
 15 16  1  0  0  0  0
 15 19  1  0  0  0  0
 17 18  1  0  0  0  0
  1 22  1  0  0  0  0
  2 23  1  0  0  0  0
  7 24  1  0  0  0  0
  8 25  1  0  0  0  0
  9 26  1  0  0  0  0
  9 27  1  0  0  0  0
 10 28  1  0  0  0  0
 10 29  1  0  0  0  0
 11 30  1  0  0  0  0
 11 31  1  0  0  0  0
 12 32  1  0  0  0  0
 13 33  1  0  0  0  0
 14 34  1  0  0  0  0
 15 35  1  0  0  0  0
 17 36  1  0  0  0  0
 17 37  1  0  0  0  0
 17 38  1  0  0  0  0
 20 39  1  0  0  0  0
 21 40  1  0  0  0  0
M  END
$$$$
