
  -OEChem-06092017133D

 40 44  0     1  0  0  0  0  0999 V2000
    0.0848    0.6118    2.8631 C   0  0  0  0  0  0  0  0  0  0  0  0
    1.4588    0.4002    3.1093 C   0  0  0  0  0  0  0  0  0  0  0  0
   -0.4193    0.5214    1.5656 C   0  0  0  0  0  0  0  0  0  0  0  0
    0.4896    0.2414    0.5637 C   0  0  0  0  0  0  0  0  0  0  0  0
    1.8196   -0.0378    0.8035 C   0  0  0  0  0  0  0  0  0  0  0  0
    2.3406    0.0593    2.0733 C   0  0  0  0  0  0  0  0  0  0  0  0
    1.0891   -2.2672   -1.1226 C   0  0  0  0  0  0  0  0  0  0  0  0
   -1.8817    0.5991    1.2153 C   0  0  0  0  0  0  0  0  0  0  0  0
   -0.3119   -2.7302   -1.4534 C   0  0  0  0  0  0  0  0  0  0  0  0
   -1.3416   -1.9022   -0.6933 C   0  0  0  0  0  0  0  0  0  0  0  0
    0.2686    1.5220   -1.5467 C   0  0  0  0  0  0  0  0  0  0  0  0
   -0.8391    2.4680   -1.0489 C   0  0  0  0  0  0  0  0  0  0  0  0
    1.3835   -0.7709   -1.2547 C   0  0  1  0  0  0  0  0  0  0  0  0
   -1.2247   -0.4244   -1.0878 C   0  0  1  0  0  0  0  0  0  0  0  0
   -2.1954    0.5259   -0.3208 C   0  0  2  0  0  0  0  0  0  0  0  0
    0.1915    0.1272   -0.8892 C   0  0  1  0  0  0  0  0  0  0  0  0
   -3.1949    2.7584   -0.5895 C   0  0  0  0  0  0  0  0  0  0  0  0
   -2.1593    1.8291   -1.0282 N   0  0  1  0  0  0  0  0  0  0  0  0
    1.9691   -3.0762   -0.8263 O   0  0  0  0  0  0  0  0  0  0  0  0
    2.4727   -0.4551   -0.3325 O   0  0  0  0  0  0  0  0  0  0  0  0
    3.6470   -0.1952    2.3285 O   0  0  0  0  0  0  0  0  0  0  0  0
   -0.5790    0.8261    3.6968 H   0  0  0  0  0  0  0  0  0  0  0  0
    1.8279    0.4738    4.1298 H   0  0  0  0  0  0  0  0  0  0  0  0
   -2.3720   -0.2611    1.6907 H   0  0  0  0  0  0  0  0  0  0  0  0
   -2.3215    1.4921    1.6706 H   0  0  0  0  0  0  0  0  0  0  0  0
   -0.4557   -2.6528   -2.5363 H   0  0  0  0  0  0  0  0  0  0  0  0
   -0.4100   -3.7845   -1.1731 H   0  0  0  0  0  0  0  0  0  0  0  0
   -2.3482   -2.2657   -0.9313 H   0  0  0  0  0  0  0  0  0  0  0  0
   -1.2013   -2.0437    0.3842 H   0  0  0  0  0  0  0  0  0  0  0  0
    0.1713    1.4062   -2.6347 H   0  0  0  0  0  0  0  0  0  0  0  0
    1.2429    1.9962   -1.3713 H   0  0  0  0  0  0  0  0  0  0  0  0
   -0.5769    2.8553   -0.0565 H   0  0  0  0  0  0  0  0  0  0  0  0
   -0.8625    3.3359   -1.7197 H   0  0  0  0  0  0  0  0  0  0  0  0
    1.7285   -0.5946   -2.2800 H   0  0  0  0  0  0  0  0  0  0  0  0
   -1.4723   -0.3797   -2.1601 H   0  0  0  0  0  0  0  0  0  0  0  0
   -3.2119    0.1257   -0.4332 H   0  0  0  0  0  0  0  0  0  0  0  0
   -4.1691    2.2476   -0.5858 H   0  0  0  0  0  0  0  0  0  0  0  0
   -2.9632    3.1129    0.4257 H   0  0  0  0  0  0  0  0  0  0  0  0
   -3.2333    3.6159   -1.2774 H   0  0  0  0  0  0  0  0  0  0  0  0
    3.8343   -0.1039    3.2785 H   0  0  0  0  0  0  0  0  0  0  0  0
  1  2  1  0  0  0  0
  1  3  2  0  0  0  0
  2  6  2  0  0  0  0
  3  4  1  0  0  0  0
  3  8  1  0  0  0  0
  4  5  2  0  0  0  0
  4 16  1  0  0  0  0
  5  6  1  0  0  0  0
  5 20  1  0  0  0  0
  6 21  1  0  0  0  0
  7  9  1  0  0  0  0
  7 13  1  0  0  0  0
  7 19  2  0  0  0  0
  8 15  1  0  0  0  0
  9 10  1  0  0  0  0
 10 14  1  0  0  0  0
 11 12  1  0  0  0  0
 11 16  1  0  0  0  0
 12 18  1  0  0  0  0
 13 16  1  0  0  0  0
 13 20  1  0  0  0  0
 14 15  1  0  0  0  0
 14 16  1  0  0  0  0
 15 18  1  0  0  0  0
 17 18  1  0  0  0  0
  1 22  1  0  0  0  0
  2 23  1  0  0  0  0
  8 24  1  0  0  0  0
  8 25  1  0  0  0  0
  9 26  1  0  0  0  0
  9 27  1  0  0  0  0
 10 28  1  0  0  0  0
 10 29  1  0  0  0  0
 11 30  1  0  0  0  0
 11 31  1  0  0  0  0
 12 32  1  0  0  0  0
 12 33  1  0  0  0  0
 13 34  1  0  0  0  0
 14 35  1  0  0  0  0
 15 36  1  0  0  0  0
 17 37  1  0  0  0  0
 17 38  1  0  0  0  0
 17 39  1  0  0  0  0
 21 40  1  0  0  0  0
M  END
$$$$
