
  -OEChem-06092011173D

 43 45  0     0  0  0  0  0  0999 V2000
   -1.1016    3.4112    6.8465 C   0  0  0  0  0  0  0  0  0  0  0  0
   -1.4626    2.1444    6.3879 C   0  0  0  0  0  0  0  0  0  0  0  0
   -1.1186    4.4997    5.9744 C   0  0  0  0  0  0  0  0  0  0  0  0
   -1.8406    1.9659    5.0571 C   0  0  0  0  0  0  0  0  0  0  0  0
   -1.4966    4.3213    4.6436 C   0  0  0  0  0  0  0  0  0  0  0  0
   -1.8576    3.0544    4.1850 C   0  0  0  0  0  0  0  0  0  0  0  0
   -5.2445    3.2837    2.3746 C   0  0  0  0  0  0  0  0  0  0  0  0
   -4.6884    2.0480    3.0707 C   0  0  0  0  0  0  0  0  0  0  0  0
   -4.2909    4.4667    2.4858 C   0  0  0  0  0  0  0  0  0  0  0  0
    1.8099    1.9288    1.7842 C   0  0  0  0  0  0  0  0  0  0  0  0
    1.2182    3.2637    1.3461 C   0  0  0  0  0  0  0  0  0  0  0  0
    0.7523    0.8326    1.7265 C   0  0  0  0  0  0  0  0  0  0  0  0
   -3.2978    1.6978    2.5426 C   0  0  0  0  0  0  0  0  0  0  0  0
   -2.8760    4.1103    2.0186 C   0  0  0  0  0  0  0  0  0  0  0  0
   -0.0573    3.5894    2.1246 C   0  0  0  0  0  0  0  0  0  0  0  0
   -0.5085    1.2353    2.4932 C   0  0  0  0  0  0  0  0  0  0  0  0
   -2.2769    2.8571    2.7077 C   0  0  0  0  0  0  0  0  0  0  0  0
   -1.0464    2.5099    1.9972 N   0  0  0  0  0  0  0  0  0  0  0  0
   -0.8086    3.5502    7.8831 H   0  0  0  0  0  0  0  0  0  0  0  0
   -1.4505    1.2969    7.0671 H   0  0  0  0  0  0  0  0  0  0  0  0
   -0.8387    5.4864    6.3313 H   0  0  0  0  0  0  0  0  0  0  0  0
   -2.1202    0.9752    4.7086 H   0  0  0  0  0  0  0  0  0  0  0  0
   -1.5068    5.1751    3.9713 H   0  0  0  0  0  0  0  0  0  0  0  0
   -5.4349    3.0596    1.3184 H   0  0  0  0  0  0  0  0  0  0  0  0
   -6.2108    3.5504    2.8217 H   0  0  0  0  0  0  0  0  0  0  0  0
   -4.6320    2.2326    4.1462 H   0  0  0  0  0  0  0  0  0  0  0  0
   -5.3696    1.2058    2.9282 H   0  0  0  0  0  0  0  0  0  0  0  0
   -4.6787    5.3148    1.9046 H   0  0  0  0  0  0  0  0  0  0  0  0
   -4.2517    4.8043    3.5307 H   0  0  0  0  0  0  0  0  0  0  0  0
    2.6465    1.6655    1.1253 H   0  0  0  0  0  0  0  0  0  0  0  0
    2.2123    2.0107    2.7999 H   0  0  0  0  0  0  0  0  0  0  0  0
    1.9570    4.0604    1.5015 H   0  0  0  0  0  0  0  0  0  0  0  0
    0.9997    3.2364    0.2724 H   0  0  0  0  0  0  0  0  0  0  0  0
    0.4979    0.6192    0.6822 H   0  0  0  0  0  0  0  0  0  0  0  0
    1.1606   -0.0930    2.1518 H   0  0  0  0  0  0  0  0  0  0  0  0
   -2.9358    0.8115    3.0798 H   0  0  0  0  0  0  0  0  0  0  0  0
   -3.3733    1.4029    1.4890 H   0  0  0  0  0  0  0  0  0  0  0  0
   -2.8831    3.9774    0.9241 H   0  0  0  0  0  0  0  0  0  0  0  0
   -2.2213    4.9799    2.2000 H   0  0  0  0  0  0  0  0  0  0  0  0
    0.2118    3.7237    3.1796 H   0  0  0  0  0  0  0  0  0  0  0  0
   -0.4713    4.5430    1.7701 H   0  0  0  0  0  0  0  0  0  0  0  0
   -1.2583    0.4368    2.4134 H   0  0  0  0  0  0  0  0  0  0  0  0
   -0.2466    1.3307    3.5543 H   0  0  0  0  0  0  0  0  0  0  0  0
  1  2  2  0  0  0  0
  1  3  1  0  0  0  0
  2  4  1  0  0  0  0
  3  5  2  0  0  0  0
  4  6  2  0  0  0  0
  5  6  1  0  0  0  0
  6 17  1  0  0  0  0
  7  8  1  0  0  0  0
  7  9  1  0  0  0  0
  8 13  1  0  0  0  0
  9 14  1  0  0  0  0
 10 11  1  0  0  0  0
 10 12  1  0  0  0  0
 11 15  1  0  0  0  0
 12 16  1  0  0  0  0
 13 17  1  0  0  0  0
 14 17  1  0  0  0  0
 15 18  1  0  0  0  0
 16 18  1  0  0  0  0
 17 18  1  0  0  0  0
  1 19  1  0  0  0  0
  2 20  1  0  0  0  0
  3 21  1  0  0  0  0
  4 22  1  0  0  0  0
  5 23  1  0  0  0  0
  7 24  1  0  0  0  0
  7 25  1  0  0  0  0
  8 26  1  0  0  0  0
  8 27  1  0  0  0  0
  9 28  1  0  0  0  0
  9 29  1  0  0  0  0
 10 30  1  0  0  0  0
 10 31  1  0  0  0  0
 11 32  1  0  0  0  0
 11 33  1  0  0  0  0
 12 34  1  0  0  0  0
 12 35  1  0  0  0  0
 13 36  1  0  0  0  0
 13 37  1  0  0  0  0
 14 38  1  0  0  0  0
 14 39  1  0  0  0  0
 15 40  1  0  0  0  0
 15 41  1  0  0  0  0
 16 42  1  0  0  0  0
 16 43  1  0  0  0  0
M  END
$$$$
