
  -OEChem-06092017133D

 46 48  0     1  0  0  0  0  0999 V2000
   -3.7860   -1.9111   -5.0953 C   0  0  0  0  0  0  0  0  0  0  0  0
   -2.7092   -2.2116   -5.9294 C   0  0  0  0  0  0  0  0  0  0  0  0
   -3.5572   -1.3950   -3.8197 C   0  0  0  0  0  0  0  0  0  0  0  0
   -1.4037   -1.9962   -5.4881 C   0  0  0  0  0  0  0  0  0  0  0  0
   -2.2517   -1.1795   -3.3783 C   0  0  0  0  0  0  0  0  0  0  0  0
   -1.1749   -1.4801   -4.2125 C   0  0  0  0  0  0  0  0  0  0  0  0
    0.2148   -1.2508   -3.7427 C   0  0  0  0  0  0  0  0  0  0  0  0
    0.6561   -0.8614   -0.1877 C   0  0  0  0  0  0  0  0  0  0  0  0
    4.1881    1.3946   -1.7641 C   0  0  0  0  0  0  0  0  0  0  0  0
    4.2983   -0.0019   -1.1451 C   0  0  0  0  0  0  0  0  0  0  0  0
    1.6676    1.6172   -2.0826 C   0  0  0  0  0  0  0  0  0  0  0  0
    1.8568   -0.7294   -1.0861 C   0  0  2  0  0  0  0  0  0  0  0  0
    2.8828    1.9668   -1.2001 C   0  0  1  0  0  0  0  0  0  0  0  0
    3.0409   -0.1425   -0.2772 C   0  0  2  0  0  0  0  0  0  0  0  0
    1.5457    0.1071   -2.3423 C   0  0  1  0  0  0  0  0  0  0  0  0
   -0.2120   -3.6940    1.9598 C   0  0  0  0  0  0  0  0  0  0  0  0
    3.5091    1.7872    1.1573 C   0  0  0  0  0  0  0  0  0  0  0  0
   -0.3970   -2.3259    1.3387 C   0  0  0  0  0  0  0  0  0  0  0  0
    2.6908    1.2502    0.0731 N   0  0  1  0  0  0  0  0  0  0  0  0
    1.1663   -1.9204   -4.1138 O   0  0  0  0  0  0  0  0  0  0  0  0
   -0.2056   -0.0015   -0.0649 O   0  0  0  0  0  0  0  0  0  0  0  0
    0.2615   -0.2118   -2.8642 O   0  0  0  0  0  0  0  0  0  0  0  0
    0.6922   -2.0675    0.4472 O   0  0  0  0  0  0  0  0  0  0  0  0
   -4.8025   -2.0789   -5.4389 H   0  0  0  0  0  0  0  0  0  0  0  0
   -2.8875   -2.6137   -6.9225 H   0  0  0  0  0  0  0  0  0  0  0  0
   -4.3956   -1.1607   -3.1703 H   0  0  0  0  0  0  0  0  0  0  0  0
   -0.5720   -2.2338   -6.1463 H   0  0  0  0  0  0  0  0  0  0  0  0
   -2.0854   -0.7771   -2.3824 H   0  0  0  0  0  0  0  0  0  0  0  0
    5.0450    2.0015   -1.4483 H   0  0  0  0  0  0  0  0  0  0  0  0
    4.1971    1.3581   -2.8583 H   0  0  0  0  0  0  0  0  0  0  0  0
    4.3762   -0.7817   -1.9096 H   0  0  0  0  0  0  0  0  0  0  0  0
    5.2025   -0.0571   -0.5273 H   0  0  0  0  0  0  0  0  0  0  0  0
    0.7462    1.9878   -1.6127 H   0  0  0  0  0  0  0  0  0  0  0  0
    1.7364    2.1417   -3.0440 H   0  0  0  0  0  0  0  0  0  0  0  0
    2.1004   -1.7535   -1.3987 H   0  0  0  0  0  0  0  0  0  0  0  0
    2.9297    3.0543   -1.0740 H   0  0  0  0  0  0  0  0  0  0  0  0
    3.2212   -0.7620    0.6094 H   0  0  0  0  0  0  0  0  0  0  0  0
    2.2678   -0.1655   -3.1218 H   0  0  0  0  0  0  0  0  0  0  0  0
   -0.1973   -4.4724    1.1919 H   0  0  0  0  0  0  0  0  0  0  0  0
    0.7246   -3.7377    2.5254 H   0  0  0  0  0  0  0  0  0  0  0  0
   -1.0206   -3.9097    2.6661 H   0  0  0  0  0  0  0  0  0  0  0  0
    3.3224    1.2134    2.0771 H   0  0  0  0  0  0  0  0  0  0  0  0
    4.5725    1.7101    0.8867 H   0  0  0  0  0  0  0  0  0  0  0  0
    3.2489    2.8428    1.3247 H   0  0  0  0  0  0  0  0  0  0  0  0
   -0.4108   -1.5521    2.1121 H   0  0  0  0  0  0  0  0  0  0  0  0
   -1.3328   -2.2843    0.7734 H   0  0  0  0  0  0  0  0  0  0  0  0
  1  2  2  0  0  0  0
  1  3  1  0  0  0  0
  2  4  1  0  0  0  0
  3  5  2  0  0  0  0
  4  6  2  0  0  0  0
  5  6  1  0  0  0  0
  6  7  1  0  0  0  0
  7 20  2  0  0  0  0
  7 22  1  0  0  0  0
  8 12  1  0  0  0  0
  8 21  2  0  0  0  0
  8 23  1  0  0  0  0
  9 10  1  0  0  0  0
  9 13  1  0  0  0  0
 10 14  1  0  0  0  0
 11 13  1  0  0  0  0
 11 15  1  0  0  0  0
 12 14  1  0  0  0  0
 12 15  1  0  0  0  0
 13 19  1  0  0  0  0
 14 19  1  0  0  0  0
 15 22  1  0  0  0  0
 16 18  1  0  0  0  0
 17 19  1  0  0  0  0
 18 23  1  0  0  0  0
  1 24  1  0  0  0  0
  2 25  1  0  0  0  0
  3 26  1  0  0  0  0
  4 27  1  0  0  0  0
  5 28  1  0  0  0  0
  9 29  1  0  0  0  0
  9 30  1  0  0  0  0
 10 31  1  0  0  0  0
 10 32  1  0  0  0  0
 11 33  1  0  0  0  0
 11 34  1  0  0  0  0
 12 35  1  0  0  0  0
 13 36  1  0  0  0  0
 14 37  1  0  0  0  0
 15 38  1  0  0  0  0
 16 39  1  0  0  0  0
 16 40  1  0  0  0  0
 16 41  1  0  0  0  0
 17 42  1  0  0  0  0
 17 43  1  0  0  0  0
 17 44  1  0  0  0  0
 18 45  1  0  0  0  0
 18 46  1  0  0  0  0
M  END
$$$$
