p-toluic acid
  Spartan 09242019543D
M001
 18 18  0  0  0  0  0  0  0  0999 V2000
    2.1056   -0.0170    0.0077 C   0  0  0  0  0  0  0  0  0  0  0  0
   -0.6998    0.0297    0.0001 C   0  0  0  0  0  0  0  0  0  0  0  0
    1.4104    1.1974    0.0073 C   0  0  0  0  0  0  0  0  0  0  0  0
    1.3707   -1.2048    0.0071 C   0  0  0  0  0  0  0  0  0  0  0  0
   -0.0188   -1.1883    0.0027 C   0  0  0  0  0  0  0  0  0  0  0  0
    0.0244    1.2242    0.0027 C   0  0  0  0  0  0  0  0  0  0  0  0
    1.9665    2.1314    0.0119 H   0  0  0  0  0  0  0  0  0  0  0  0
    1.8947   -2.1568    0.0115 H   0  0  0  0  0  0  0  0  0  0  0  0
   -0.5769   -2.1180    0.0036 H   0  0  0  0  0  0  0  0  0  0  0  0
   -0.5181    2.1637    0.0035 H   0  0  0  0  0  0  0  0  0  0  0  0
   -2.1817    0.1102   -0.0022 C   0  0  0  0  0  0  0  0  0  0  0  0
   -2.8212    1.1382   -0.0037 O   0  0  0  0  0  0  0  0  0  0  0  0
   -2.7785   -1.0997   -0.0029 O   0  0  0  0  0  0  0  0  0  0  0  0
   -3.7322   -0.9238   -0.0044 H   0  0  0  0  0  0  0  0  0  0  0  0
    3.6127   -0.0348   -0.0106 C   0  0  0  0  0  0  0  0  0  0  0  0
    3.9913    0.2159   -1.0085 H   0  0  0  0  0  0  0  0  0  0  0  0
    4.0049   -1.0200    0.2569 H   0  0  0  0  0  0  0  0  0  0  0  0
    4.0260    0.6987    0.6894 H   0  0  0  0  0  0  0  0  0  0  0  0
  1  4  4  0  0  0  0
  4  5  4  0  0  0  0
  2  5  4  0  0  0  0
  2  6  4  0  0  0  0
  3  6  4  0  0  0  0
  1  3  4  0  0  0  0
  5  9  1  0  0  0  0
  6 10  1  0  0  0  0
  3  7  1  0  0  0  0
  4  8  1  0  0  0  0
 11 12  2  0  0  0  0
 11 13  1  0  0  0  0
 13 14  1  0  0  0  0
  2 11  1  0  0  0  0
 15 16  1  0  0  0  0
 15 17  1  0  0  0  0
 15 18  1  0  0  0  0
  1 15  1  0  0  0  0
M  END
$$$$
