
  -OEChem-03082114233D

 27 28  0     0  0  0  0  0  0999 V2000
    0.1236    2.4620    2.6953 N   0  0  0  0  0  0  0  0  0  0  0  0
   -0.4800    3.6059    3.1801 C   0  0  0  0  0  0  0  0  0  0  0  0
    0.1523    4.8829    2.9962 C   0  0  0  0  0  0  0  0  0  0  0  0
   -0.2872    5.9818    3.3845 O   0  0  0  0  0  0  0  0  0  0  0  0
    1.3422    4.8025    2.3259 O   0  0  0  0  0  0  0  0  0  0  0  0
    1.7825    5.6695    2.1959 H   0  0  0  0  0  0  0  0  0  0  0  0
    4.0480   -2.1826   -0.0826 C   0  0  0  0  0  0  0  0  0  0  0  0
    2.8800   -0.2540    0.8124 C   0  0  0  0  0  0  0  0  0  0  0  0
    1.8010    0.3208    1.4839 C   0  0  0  0  0  0  0  0  0  0  0  0
    0.8057   -1.8639    1.7547 C   0  0  0  0  0  0  0  0  0  0  0  0
    2.9219   -1.6338    0.6120 C   0  0  0  0  0  0  0  0  0  0  0  0
    0.7638   -0.4841    1.9551 C   0  0  0  0  0  0  0  0  0  0  0  0
    1.8847   -2.4387    1.0832 C   0  0  0  0  0  0  0  0  0  0  0  0
   -1.6849    3.4240    3.8259 C   0  0  0  0  0  0  0  0  0  0  0  0
   -0.6352    1.4273    2.9809 C   0  0  0  0  0  0  0  0  0  0  0  0
   -2.5887    4.4076    4.4570 C   0  0  0  0  0  0  0  0  0  0  0  0
    4.9604   -2.6272   -0.6454 N   0  0  0  0  0  0  0  0  0  0  0  0
   -0.3261    0.0974    2.6356 N   0  0  0  0  0  0  0  0  0  0  0  0
   -2.0893    1.7573    3.8305 S   0  0  0  0  0  0  0  0  0  0  0  0
    1.8872   -4.1546    0.8645 Cl  0  0  0  0  0  0  0  0  0  0  0  0
    3.6799    0.3892    0.4525 H   0  0  0  0  0  0  0  0  0  0  0  0
    1.7788    1.3970    1.6352 H   0  0  0  0  0  0  0  0  0  0  0  0
   -0.0071   -2.4866    2.1232 H   0  0  0  0  0  0  0  0  0  0  0  0
   -3.3271    4.7883    3.7332 H   0  0  0  0  0  0  0  0  0  0  0  0
   -3.1429    3.9734    5.3059 H   0  0  0  0  0  0  0  0  0  0  0  0
   -2.0379    5.2732    4.8622 H   0  0  0  0  0  0  0  0  0  0  0  0
   -1.0244   -0.5765    2.9357 H   0  0  0  0  0  0  0  0  0  0  0  0
  7 11  1  0  0  0  0
  7 17  3  0  0  0  0
  8  9  2  0  0  0  0
  8 11  1  0  0  0  0
  9 12  1  0  0  0  0
 10 12  2  0  0  0  0
 10 13  1  0  0  0  0
 11 13  2  0  0  0  0
 12 18  1  0  0  0  0
 13 20  1  0  0  0  0
  2 14  2  0  0  0  0
  2  3  1  0  0  0  0
  1  2  1  0  0  0  0
 14 16  1  0  0  0  0
 14 19  1  0  0  0  0
  1 15  2  0  0  0  0
 15 18  1  0  0  0  0
 15 19  1  0  0  0  0
  3  4  2  0  0  0  0
  3  5  1  0  0  0  0
  8 21  1  0  0  0  0
  9 22  1  0  0  0  0
 10 23  1  0  0  0  0
 16 24  1  0  0  0  0
 16 25  1  0  0  0  0
 16 26  1  0  0  0  0
 18 27  1  0  0  0  0
  5  6  1  0  0  0  0
M  END
$$$$
