
  -OEChem-10182004123D

 12 12  0     0  0  0  0  0  0999 V2000
    1.8851   -1.0363   -0.1124 C   0  0  0  0  0  0  0  0  0  0  0  0
    2.8783   -1.6520    2.0022 C   0  0  0  0  0  0  0  0  0  0  0  0
    0.8066   -0.4630    0.5610 C   0  0  0  0  0  0  0  0  0  0  0  0
    1.7997   -1.0786    2.6757 C   0  0  0  0  0  0  0  0  0  0  0  0
    2.9210   -1.6309    0.6081 C   0  0  0  0  0  0  0  0  0  0  0  0
    0.7638   -0.4841    1.9551 C   0  0  0  0  0  0  0  0  0  0  0  0
    3.9116   -2.1580   -0.0104 O   0  5  0  0  0  0  0  0  0  0  0  0
   -0.6954    0.2973    2.8672 Br  0  0  0  0  0  0  0  0  0  0  0  0
    1.8944   -1.0063   -1.2009 H   0  0  0  0  0  0  0  0  0  0  0  0
    3.6735   -2.1096    2.5884 H   0  0  0  0  0  0  0  0  0  0  0  0
    0.0079   -0.0029   -0.0152 H   0  0  0  0  0  0  0  0  0  0  0  0
    1.7814   -1.1028    3.7623 H   0  0  0  0  0  0  0  0  0  0  0  0
  1  3  1  0  0  0  0
  1  5  2  0  0  0  0
  2  4  2  0  0  0  0
  2  5  1  0  0  0  0
  3  6  2  0  0  0  0
  4  6  1  0  0  0  0
  5  7  1  0  0  0  0
  6  8  1  0  0  0  0
  1  9  1  0  0  0  0
  2 10  1  0  0  0  0
  3 11  1  0  0  0  0
  4 12  1  0  0  0  0
M  CHG  1   7  -1
M  END
$$$$
