
  -OEChem-10162012013D

 13 13  0     0  0  0  0  0  0999 V2000
    0.8675   -0.4975    0.0000 C   0  0  0  0  0  0  0  0  0  0  0  0
    1.7350    0.0000    0.0000 C   0  0  0  0  0  0  0  0  0  0  0  0
    1.7350    1.0052    0.0000 C   0  0  0  0  0  0  0  0  0  0  0  0
    0.8675    1.5129    0.0000 C   0  0  0  0  0  0  0  0  0  0  0  0
   -0.0000    1.0052    0.0000 C   0  0  0  0  0  0  0  0  0  0  0  0
    0.0000    0.0000    0.0000 C   0  0  0  0  0  0  0  0  0  0  0  0
   -0.8653   -0.5013    0.0000 O   0  5  0  0  0  0  0  0  0  0  0  0
    2.6025    1.5026    0.0000 Br  0  0  0  0  0  0  0  0  0  0  0  0
    0.8675   -1.5775    0.0000 H   0  0  0  0  0  0  0  0  0  0  0  0
    2.6695   -0.5414    0.0000 H   0  0  0  0  0  0  0  0  0  0  0  0
    0.8675    2.5929    0.0000 H   0  0  0  0  0  0  0  0  0  0  0  0
   -0.9369    1.5424    0.0000 H   0  0  0  0  0  0  0  0  0  0  0  0
   -0.8653   -0.5013    0.0000 H   0  0  0  0  0  0  0  0  0  0  0  0
  1  6  2  0  0  0  0
  1  2  1  0  0  0  0
  2  3  2  0  0  0  0
  3  4  1  0  0  0  0
  4  5  2  0  0  0  0
  5  6  1  0  0  0  0
  6  7  1  0  0  0  0
  3  8  1  0  0  0  0
  1  9  1  0  0  0  0
  2 10  1  0  0  0  0
  4 11  1  0  0  0  0
  5 12  1  0  0  0  0
  7 13  1  0  0  0  0
M  CHG  1   7  -1
M  END
$$$$
